! Boundary layer characteristics at the trailing edge for the airfoil coordinates of C:/Material/Projects/Aeroacoustics/verifyAA/OpenFAST_IEA_LB_RWT/Airfoils/RotorSE_FAST_IEA_landBased_RWT_AeroDyn15_coords_20.txt
! Legend: aoa - angle of attack (deg), Re - Reynolds number (-, millions), PS - pressure side, SS - suction side,  Ue_Vinf - edge velocity (-), Dstar - displacement thickness (-), Theta - momentum thickness (-) Cf  - friction coefficient (-)
4 	 ReListBL   -  Number of Reynolds numbers (it corresponds to the number of tables)
30 	 aoaListBL  -  Number of angles of attack (it corresponds to the number of rows in each table)
0.50 	   -  Re
aoa 	 	 Ue_Vinf_SS 	 Ue_Vinf_PS 	  Dstar_SS 	 	  Dstar_PS 	 	  Theta_SS 	 	  Theta_PS 	 	    Cf_SS 	 	    Cf_PS
(deg) 	 	 	 (-) 	 	 	 (-) 	 	 	 (-) 	 	 	 (-) 	 	 	 (-) 	 	 	 (-) 	 	 	 (-) 	 	 	 (-)
-5.00000 	 8.61810e-01 	 8.29210e-01 	 6.28400e-03 	 8.17000e-03 	 3.56600e-03 	 4.14700e-03 	 1.50800e-03 	 9.46000e-04 
-3.96552 	 8.61430e-01 	 8.31830e-01 	 7.06300e-03 	 9.04700e-03 	 3.91200e-03 	 4.49300e-03 	 1.36100e-03 	 8.60000e-04 
-2.93103 	 8.61820e-01 	 8.34840e-01 	 7.89300e-03 	 9.96900e-03 	 4.28100e-03 	 4.86000e-03 	 1.24000e-03 	 7.91000e-04 
-1.89655 	 8.62620e-01 	 8.37990e-01 	 8.79300e-03 	 1.09540e-02 	 4.67900e-03 	 5.25700e-03 	 1.13800e-03 	 7.35000e-04 
-0.86207 	 8.64160e-01 	 8.41720e-01 	 9.72500e-03 	 1.19620e-02 	 5.07100e-03 	 5.64200e-03 	 1.04200e-03 	 6.80000e-04 
0.17241 	 8.65320e-01 	 8.44940e-01 	 1.06750e-02 	 1.29860e-02 	 5.43900e-03 	 5.99700e-03 	 9.46000e-04 	 6.20000e-04 
1.20690 	 8.67350e-01 	 8.48580e-01 	 1.17560e-02 	 1.41340e-02 	 5.91100e-03 	 6.46800e-03 	 8.85000e-04 	 5.89000e-04 
2.24138 	 8.69030e-01 	 8.52050e-01 	 1.28840e-02 	 1.53300e-02 	 6.33600e-03 	 6.87800e-03 	 8.05000e-04 	 5.39000e-04 
3.27586 	 8.71390e-01 	 8.55780e-01 	 1.41290e-02 	 1.66360e-02 	 6.85700e-03 	 7.39500e-03 	 7.53000e-04 	 5.12000e-04 
4.31034 	 8.73690e-01 	 8.60020e-01 	 1.54960e-02 	 1.80660e-02 	 7.28000e-03 	 7.78500e-03 	 6.60000e-04 	 4.47000e-04 
5.34483 	 8.76410e-01 	 8.64000e-01 	 1.69930e-02 	 1.96220e-02 	 7.85700e-03 	 8.35200e-03 	 6.10000e-04 	 4.18000e-04 
6.37931 	 8.80150e-01 	 8.70120e-01 	 1.87650e-02 	 2.14480e-02 	 8.22000e-03 	 8.64600e-03 	 4.89000e-04 	 3.28000e-04 
7.41379 	 8.87410e-01 	 8.81030e-01 	 2.12130e-02 	 2.39380e-02 	 8.36900e-03 	 8.65600e-03 	 3.09000e-04 	 1.87000e-04 
8.44828 	 8.99200e-01 	 8.97910e-01 	 2.47950e-02 	 2.75300e-02 	 8.39000e-03 	 8.45200e-03 	 1.22000e-04 	 3.10000e-05 
9.48276 	 9.18490e-01 	 9.18840e-01 	 2.92510e-02 	 3.20290e-02 	 8.06700e-03 	 8.05000e-03 	 8.00000e-06 	 -4.00000e-06 
10.51724 	 9.44080e-01 	 9.43270e-01 	 3.66500e-02 	 3.95380e-02 	 7.84600e-03 	 7.89300e-03 	 -1.50000e-05 	 -1.60000e-05 
11.55172 	 9.83450e-01 	 9.82130e-01 	 5.53810e-02 	 5.84300e-02 	 8.27600e-03 	 8.37500e-03 	 -1.60000e-05 	 -1.50000e-05 
12.58621 	 1.02373e+00 	 1.02228e+00 	 8.48660e-02 	 8.81130e-02 	 9.65400e-03 	 9.80400e-03 	 -1.30000e-05 	 -1.30000e-05 
13.62069 	 1.05390e+00 	 1.05254e+00 	 1.16037e-01 	 1.19496e-01 	 1.12390e-02 	 1.14200e-02 	 -1.10000e-05 	 -1.10000e-05 
14.65517 	 1.07646e+00 	 1.07522e+00 	 1.46364e-01 	 1.50033e-01 	 1.26580e-02 	 1.28580e-02 	 -1.00000e-05 	 -1.00000e-05 
15.68966 	 1.09325e+00 	 1.09211e+00 	 1.73941e-01 	 1.77802e-01 	 1.37870e-02 	 1.39990e-02 	 -9.00000e-06 	 -9.00000e-06 
16.72414 	 1.10723e+00 	 1.10619e+00 	 2.00682e-01 	 2.04723e-01 	 1.47760e-02 	 1.49950e-02 	 -9.00000e-06 	 -9.00000e-06 
17.75862 	 1.11986e+00 	 1.11889e+00 	 2.27232e-01 	 2.31439e-01 	 1.56630e-02 	 1.58880e-02 	 -8.00000e-06 	 -8.00000e-06 
18.79310 	 1.13141e+00 	 1.13051e+00 	 2.53012e-01 	 2.57377e-01 	 1.64860e-02 	 1.67160e-02 	 -8.00000e-06 	 -8.00000e-06 
19.82759 	 1.14298e+00 	 1.14213e+00 	 2.78595e-01 	 2.83106e-01 	 1.72370e-02 	 1.74700e-02 	 -8.00000e-06 	 -8.00000e-06 
20.86207 	 1.15377e+00 	 1.15297e+00 	 3.01743e-01 	 3.06376e-01 	 1.78980e-02 	 1.81340e-02 	 -7.00000e-06 	 -7.00000e-06 
21.89655 	 1.16505e+00 	 1.16430e+00 	 3.25052e-01 	 3.29798e-01 	 1.84400e-02 	 1.86780e-02 	 -7.00000e-06 	 -7.00000e-06 
22.93103 	 1.17581e+00 	 1.17508e+00 	 3.46599e-01 	 3.51447e-01 	 1.90110e-02 	 1.92510e-02 	 -7.00000e-06 	 -7.00000e-06 
23.96552 	 1.18692e+00 	 1.18622e+00 	 3.67935e-01 	 3.72875e-01 	 1.95350e-02 	 1.97760e-02 	 -7.00000e-06 	 -7.00000e-06 
25.00000 	 1.19779e+00 	 1.19711e+00 	 3.88295e-01 	 3.93320e-01 	 1.99610e-02 	 2.02040e-02 	 -7.00000e-06 	 -7.00000e-06 
1.00 	   -  Re
aoa 	 	 Ue_Vinf_SS 	 Ue_Vinf_PS 	  Dstar_SS 	 	  Dstar_PS 	 	  Theta_SS 	 	  Theta_PS 	 	    Cf_SS 	 	    Cf_PS
(deg) 	 	 	 (-) 	 	 	 (-) 	 	 	 (-) 	 	 	 (-) 	 	 	 (-) 	 	 	 (-) 	 	 	 (-) 	 	 	 (-)
-5.00000 	 8.56630e-01 	 8.22870e-01 	 5.37300e-03 	 7.21600e-03 	 2.96400e-03 	 3.47900e-03 	 1.17300e-03 	 6.65000e-04 
-3.96552 	 8.56920e-01 	 8.26210e-01 	 6.02800e-03 	 7.96000e-03 	 3.25400e-03 	 3.76800e-03 	 1.06700e-03 	 6.11000e-04 
-2.93103 	 8.57590e-01 	 8.29580e-01 	 6.67600e-03 	 8.68800e-03 	 3.52500e-03 	 4.03400e-03 	 9.72000e-04 	 5.61000e-04 
-1.89655 	 8.58660e-01 	 8.33090e-01 	 7.33400e-03 	 9.41700e-03 	 3.78900e-03 	 4.28900e-03 	 8.87000e-04 	 5.14000e-04 
-0.86207 	 8.60090e-01 	 8.36900e-01 	 8.06700e-03 	 1.02190e-02 	 4.07500e-03 	 4.56300e-03 	 8.07000e-04 	 4.71000e-04 
0.17241 	 8.61990e-01 	 8.41300e-01 	 8.94800e-03 	 1.11700e-02 	 4.40700e-03 	 4.88000e-03 	 7.24000e-04 	 4.26000e-04 
1.20690 	 8.63840e-01 	 8.45290e-01 	 9.76600e-03 	 1.20480e-02 	 4.68800e-03 	 5.14100e-03 	 6.51000e-04 	 3.82000e-04 
2.24138 	 8.66130e-01 	 8.49750e-01 	 1.07550e-02 	 1.30970e-02 	 5.02500e-03 	 5.45500e-03 	 5.79000e-04 	 3.41000e-04 
3.27586 	 8.68730e-01 	 8.54630e-01 	 1.18130e-02 	 1.42120e-02 	 5.33500e-03 	 5.73100e-03 	 5.01000e-04 	 2.92000e-04 
4.31034 	 8.71590e-01 	 8.59410e-01 	 1.30020e-02 	 1.54560e-02 	 5.70100e-03 	 6.06800e-03 	 4.38000e-04 	 2.54000e-04 
5.34483 	 8.74950e-01 	 8.65090e-01 	 1.42940e-02 	 1.67970e-02 	 5.99400e-03 	 6.31100e-03 	 3.59000e-04 	 2.00000e-04 
6.37931 	 8.79480e-01 	 8.72210e-01 	 1.58180e-02 	 1.83640e-02 	 6.25700e-03 	 6.50600e-03 	 2.71000e-04 	 1.39000e-04 
7.41379 	 8.85460e-01 	 8.81030e-01 	 1.77620e-02 	 2.03480e-02 	 6.52900e-03 	 6.69200e-03 	 1.81000e-04 	 7.20000e-05 
8.44828 	 8.94690e-01 	 8.95950e-01 	 2.07480e-02 	 2.33360e-02 	 6.81800e-03 	 6.76800e-03 	 7.20000e-05 	 9.00000e-06 
9.48276 	 9.18790e-01 	 9.18980e-01 	 2.60040e-02 	 2.86860e-02 	 7.01300e-03 	 7.00400e-03 	 2.00000e-06 	 -4.00000e-06 
10.51724 	 9.60370e-01 	 9.59270e-01 	 4.05540e-02 	 4.34320e-02 	 7.57300e-03 	 7.63800e-03 	 -9.00000e-06 	 -9.00000e-06 
11.55172 	 9.98050e-01 	 9.96620e-01 	 6.10770e-02 	 6.41100e-02 	 8.35700e-03 	 8.47100e-03 	 -8.00000e-06 	 -7.00000e-06 
12.58621 	 1.02779e+00 	 1.02630e+00 	 8.46630e-02 	 8.78660e-02 	 9.51300e-03 	 9.66500e-03 	 -7.00000e-06 	 -6.00000e-06 
13.62069 	 1.05060e+00 	 1.04919e+00 	 1.08604e-01 	 1.11988e-01 	 1.07170e-02 	 1.08940e-02 	 -6.00000e-06 	 -6.00000e-06 
14.65517 	 1.07025e+00 	 1.06893e+00 	 1.33895e-01 	 1.37466e-01 	 1.19440e-02 	 1.21400e-02 	 -5.00000e-06 	 -5.00000e-06 
15.68966 	 1.08601e+00 	 1.08480e+00 	 1.58579e-01 	 1.62331e-01 	 1.30360e-02 	 1.32440e-02 	 -5.00000e-06 	 -5.00000e-06 
16.72414 	 1.09875e+00 	 1.09763e+00 	 1.82125e-01 	 1.86051e-01 	 1.39660e-02 	 1.41830e-02 	 -5.00000e-06 	 -5.00000e-06 
17.75862 	 1.11053e+00 	 1.10948e+00 	 2.06434e-01 	 2.10526e-01 	 1.48610e-02 	 1.50840e-02 	 -4.00000e-06 	 -4.00000e-06 
18.79310 	 1.12202e+00 	 1.12106e+00 	 2.32230e-01 	 2.36488e-01 	 1.57540e-02 	 1.59820e-02 	 -4.00000e-06 	 -4.00000e-06 
19.82759 	 1.13217e+00 	 1.13127e+00 	 2.56284e-01 	 2.60694e-01 	 1.65460e-02 	 1.67790e-02 	 -4.00000e-06 	 -4.00000e-06 
20.86207 	 1.14266e+00 	 1.14181e+00 	 2.80778e-01 	 2.85331e-01 	 1.73220e-02 	 1.75580e-02 	 -4.00000e-06 	 -4.00000e-06 
21.89655 	 1.15579e+00 	 1.15500e+00 	 3.08633e-01 	 3.13323e-01 	 1.82400e-02 	 1.84800e-02 	 -4.00000e-06 	 -4.00000e-06 
22.93103 	 1.16809e+00 	 1.16733e+00 	 3.34045e-01 	 3.38857e-01 	 1.90210e-02 	 1.92630e-02 	 -4.00000e-06 	 -3.00000e-06 
23.96552 	 1.18095e+00 	 1.18023e+00 	 3.59096e-01 	 3.64014e-01 	 1.98160e-02 	 2.00600e-02 	 -3.00000e-06 	 -3.00000e-06 
25.00000 	 1.19398e+00 	 1.19329e+00 	 3.83185e-01 	 3.88197e-01 	 2.05250e-02 	 2.07710e-02 	 -3.00000e-06 	 -3.00000e-06 
5.00 	   -  Re
aoa 	 	 Ue_Vinf_SS 	 Ue_Vinf_PS 	  Dstar_SS 	 	  Dstar_PS 	 	  Theta_SS 	 	  Theta_PS 	 	    Cf_SS 	 	    Cf_PS
(deg) 	 	 	 (-) 	 	 	 (-) 	 	 	 (-) 	 	 	 (-) 	 	 	 (-) 	 	 	 (-) 	 	 	 (-) 	 	 	 (-)
-5.00000 	 8.53970e-01 	 8.07660e-01 	 3.69700e-03 	 5.36900e-03 	 2.18300e-03 	 2.70900e-03 	 1.01000e-03 	 5.20000e-04 
-3.96552 	 8.53030e-01 	 8.09500e-01 	 4.04800e-03 	 5.80300e-03 	 2.35100e-03 	 2.88400e-03 	 9.43000e-04 	 4.87000e-04 
-2.93103 	 8.52490e-01 	 8.12040e-01 	 4.47500e-03 	 6.31500e-03 	 2.55500e-03 	 3.09200e-03 	 8.74000e-04 	 4.55000e-04 
-1.89655 	 8.52250e-01 	 8.14640e-01 	 4.89700e-03 	 6.81200e-03 	 2.74700e-03 	 3.28400e-03 	 8.12000e-04 	 4.25000e-04 
-0.86207 	 8.52280e-01 	 8.17320e-01 	 5.32100e-03 	 7.30300e-03 	 2.93000e-03 	 3.46300e-03 	 7.54000e-04 	 3.96000e-04 
0.17241 	 8.52740e-01 	 8.20830e-01 	 5.88200e-03 	 7.93600e-03 	 3.17200e-03 	 3.69800e-03 	 6.91000e-04 	 3.67000e-04 
1.20690 	 8.52950e-01 	 8.23370e-01 	 6.30900e-03 	 8.41900e-03 	 3.33500e-03 	 3.84900e-03 	 6.38000e-04 	 3.38000e-04 
2.24138 	 8.53760e-01 	 8.26970e-01 	 6.91400e-03 	 9.08600e-03 	 3.57100e-03 	 4.07100e-03 	 5.80000e-04 	 3.09000e-04 
3.27586 	 8.54510e-01 	 8.30230e-01 	 7.49200e-03 	 9.71900e-03 	 3.77800e-03 	 4.25900e-03 	 5.27000e-04 	 2.80000e-04 
4.31034 	 8.56150e-01 	 8.34870e-01 	 8.32600e-03 	 1.06140e-02 	 4.07700e-03 	 4.53300e-03 	 4.66000e-04 	 2.48000e-04 
5.34483 	 8.58390e-01 	 8.40160e-01 	 9.31100e-03 	 1.16600e-02 	 4.40700e-03 	 4.83200e-03 	 4.03000e-04 	 2.14000e-04 
6.37931 	 8.68250e-01 	 8.56250e-01 	 1.23460e-02 	 1.48040e-02 	 5.39700e-03 	 5.74200e-03 	 2.82000e-04 	 1.49000e-04 
7.41379 	 8.85210e-01 	 8.80010e-01 	 1.72430e-02 	 1.97960e-02 	 6.58800e-03 	 6.77600e-03 	 1.39000e-04 	 5.50000e-05 
8.44828 	 9.08670e-01 	 9.11640e-01 	 2.31830e-02 	 2.57150e-02 	 7.18300e-03 	 7.05600e-03 	 3.00000e-06 	 1.00000e-06 
9.48276 	 9.37090e-01 	 9.36820e-01 	 2.99130e-02 	 3.26300e-02 	 7.17400e-03 	 7.18800e-03 	 -1.00000e-06 	 -2.00000e-06 
10.51724 	 9.62610e-01 	 9.61610e-01 	 3.96000e-02 	 4.24460e-02 	 7.30300e-03 	 7.36100e-03 	 -2.00000e-06 	 -2.00000e-06 
11.55172 	 9.82850e-01 	 9.81560e-01 	 4.98900e-02 	 5.28360e-02 	 7.52200e-03 	 7.60900e-03 	 -2.00000e-06 	 -2.00000e-06 
12.58621 	 1.00455e+00 	 1.00309e+00 	 6.38240e-02 	 6.68820e-02 	 8.02900e-03 	 8.14800e-03 	 -2.00000e-06 	 -2.00000e-06 
13.62069 	 1.02324e+00 	 1.02172e+00 	 7.93530e-02 	 8.25400e-02 	 8.74000e-03 	 8.88600e-03 	 -1.00000e-06 	 -1.00000e-06 
14.65517 	 1.04125e+00 	 1.03977e+00 	 9.76740e-02 	 1.01013e-01 	 9.64300e-03 	 9.81200e-03 	 -1.00000e-06 	 -1.00000e-06 
15.68966 	 1.05793e+00 	 1.05652e+00 	 1.18051e-01 	 1.21551e-01 	 1.06830e-02 	 1.08720e-02 	 -1.00000e-06 	 -1.00000e-06 
16.72414 	 1.07264e+00 	 1.07132e+00 	 1.39728e-01 	 1.43401e-01 	 1.17430e-02 	 1.19460e-02 	 -1.00000e-06 	 -1.00000e-06 
17.75862 	 1.08525e+00 	 1.08402e+00 	 1.61640e-01 	 1.65483e-01 	 1.27310e-02 	 1.29450e-02 	 -1.00000e-06 	 -1.00000e-06 
18.79310 	 1.09589e+00 	 1.09475e+00 	 1.83044e-01 	 1.87051e-01 	 1.36090e-02 	 1.38300e-02 	 -1.00000e-06 	 -1.00000e-06 
19.82759 	 1.10603e+00 	 1.10497e+00 	 2.05880e-01 	 2.10054e-01 	 1.44880e-02 	 1.47150e-02 	 -1.00000e-06 	 -1.00000e-06 
20.86207 	 1.11549e+00 	 1.11451e+00 	 2.29101e-01 	 2.33436e-01 	 1.53300e-02 	 1.55620e-02 	 -1.00000e-06 	 -1.00000e-06 
21.89655 	 1.12455e+00 	 1.12362e+00 	 2.52083e-01 	 2.56566e-01 	 1.60820e-02 	 1.63180e-02 	 -1.00000e-06 	 -1.00000e-06 
22.93103 	 1.13356e+00 	 1.13269e+00 	 2.75292e-01 	 2.79917e-01 	 1.68140e-02 	 1.70530e-02 	 -1.00000e-06 	 -1.00000e-06 
23.96552 	 1.14429e+00 	 1.14348e+00 	 3.00720e-01 	 3.05484e-01 	 1.76390e-02 	 1.78810e-02 	 -1.00000e-06 	 -1.00000e-06 
25.00000 	 1.15535e+00 	 1.15458e+00 	 3.25621e-01 	 3.30508e-01 	 1.84170e-02 	 1.86610e-02 	 -1.00000e-06 	 -1.00000e-06 
10.00 	   -  Re
aoa 	 	 Ue_Vinf_SS 	 Ue_Vinf_PS 	  Dstar_SS 	 	  Dstar_PS 	 	  Theta_SS 	 	  Theta_PS 	 	    Cf_SS 	 	    Cf_PS
(deg) 	 	 	 (-) 	 	 	 (-) 	 	 	 (-) 	 	 	 (-) 	 	 	 (-) 	 	 	 (-) 	 	 	 (-) 	 	 	 (-)
-5.00000 	 8.54160e-01 	 8.01630e-01 	 3.22900e-03 	 4.83700e-03 	 1.97000e-03 	 2.51000e-03 	 9.67000e-04 	 4.87000e-04 
-3.96552 	 8.52740e-01 	 8.03250e-01 	 3.54900e-03 	 5.24400e-03 	 2.13200e-03 	 2.68200e-03 	 9.04000e-04 	 4.57000e-04 
-2.93103 	 8.51710e-01 	 8.05320e-01 	 3.89900e-03 	 5.67800e-03 	 2.30500e-03 	 2.86200e-03 	 8.44000e-04 	 4.29000e-04 
-1.89655 	 8.50940e-01 	 8.07700e-01 	 4.28900e-03 	 6.14800e-03 	 2.49200e-03 	 3.05300e-03 	 7.85000e-04 	 4.02000e-04 
-0.86207 	 8.50410e-01 	 8.09810e-01 	 4.62500e-03 	 6.55200e-03 	 2.64300e-03 	 3.20200e-03 	 7.34000e-04 	 3.76000e-04 
0.17241 	 8.50200e-01 	 8.12640e-01 	 5.06100e-03 	 7.05700e-03 	 2.83800e-03 	 3.39300e-03 	 6.80000e-04 	 3.51000e-04 
1.20690 	 8.49990e-01 	 8.15030e-01 	 5.45100e-03 	 7.50700e-03 	 3.00000e-03 	 3.54700e-03 	 6.32000e-04 	 3.26000e-04 
2.24138 	 8.50380e-01 	 8.18610e-01 	 6.01300e-03 	 8.13600e-03 	 3.23600e-03 	 3.77300e-03 	 5.77000e-04 	 3.00000e-04 
3.27586 	 8.51300e-01 	 8.22940e-01 	 6.70800e-03 	 8.89900e-03 	 3.51900e-03 	 4.04000e-03 	 5.20000e-04 	 2.73000e-04 
4.31034 	 8.53290e-01 	 8.28860e-01 	 7.67700e-03 	 9.94200e-03 	 3.90000e-03 	 4.39800e-03 	 4.55000e-04 	 2.43000e-04 
5.34483 	 8.61090e-01 	 8.43640e-01 	 1.01780e-02 	 1.25620e-02 	 4.83900e-03 	 5.28000e-03 	 3.42000e-04 	 1.89000e-04 
6.37931 	 8.74850e-01 	 8.64910e-01 	 1.42510e-02 	 1.67520e-02 	 6.07400e-03 	 6.39400e-03 	 2.08000e-04 	 1.10000e-04 
7.41379 	 8.87330e-01 	 8.82440e-01 	 1.78960e-02 	 2.04580e-02 	 6.81400e-03 	 6.99600e-03 	 1.11000e-04 	 3.90000e-05 
8.44828 	 9.02990e-01 	 9.07670e-01 	 2.23210e-02 	 2.48110e-02 	 7.24400e-03 	 7.04800e-03 	 9.00000e-06 	 1.00000e-06 
9.48276 	 9.27760e-01 	 9.28180e-01 	 2.70630e-02 	 2.97290e-02 	 7.06100e-03 	 7.04100e-03 	 0.00000e+00 	 -1.00000e-06 
10.51724 	 9.49010e-01 	 9.48320e-01 	 3.40370e-02 	 3.68380e-02 	 7.07000e-03 	 7.10600e-03 	 -1.00000e-06 	 -1.00000e-06 
11.55172 	 9.68450e-01 	 9.67360e-01 	 4.25180e-02 	 4.54180e-02 	 7.15900e-03 	 7.22500e-03 	 -1.00000e-06 	 -1.00000e-06 
12.58621 	 9.89250e-01 	 9.87900e-01 	 5.39760e-02 	 5.69780e-02 	 7.45200e-03 	 7.54800e-03 	 -1.00000e-06 	 -1.00000e-06 
13.62069 	 1.00746e+00 	 1.00599e+00 	 6.68650e-02 	 6.99780e-02 	 7.93700e-03 	 8.06100e-03 	 -1.00000e-06 	 -1.00000e-06 
14.65517 	 1.02498e+00 	 1.02346e+00 	 8.22230e-02 	 8.54660e-02 	 8.64500e-03 	 8.79500e-03 	 -1.00000e-06 	 -1.00000e-06 
15.68966 	 1.04115e+00 	 1.03967e+00 	 9.94910e-02 	 1.02882e-01 	 9.49300e-03 	 9.66500e-03 	 -1.00000e-06 	 -1.00000e-06 
16.72414 	 1.05705e+00 	 1.05564e+00 	 1.19668e-01 	 1.23224e-01 	 1.05340e-02 	 1.07250e-02 	 -1.00000e-06 	 -1.00000e-06 
17.75862 	 1.07133e+00 	 1.07001e+00 	 1.41336e-01 	 1.45066e-01 	 1.16080e-02 	 1.18140e-02 	 -1.00000e-06 	 -1.00000e-06 
18.79310 	 1.08310e+00 	 1.08187e+00 	 1.62561e-01 	 1.66460e-01 	 1.25460e-02 	 1.27610e-02 	 -1.00000e-06 	 0.00000e+00 
19.82759 	 1.09476e+00 	 1.09362e+00 	 1.86176e-01 	 1.90251e-01 	 1.35650e-02 	 1.37880e-02 	 0.00000e+00 	 0.00000e+00 
20.86207 	 1.10405e+00 	 1.10299e+00 	 2.07902e-01 	 2.12135e-01 	 1.43760e-02 	 1.46050e-02 	 0.00000e+00 	 0.00000e+00 
21.89655 	 1.11401e+00 	 1.11303e+00 	 2.32633e-01 	 2.37030e-01 	 1.53100e-02 	 1.55440e-02 	 0.00000e+00 	 0.00000e+00 
22.93103 	 1.12259e+00 	 1.12167e+00 	 2.55163e-01 	 2.59706e-01 	 1.60540e-02 	 1.62910e-02 	 0.00000e+00 	 0.00000e+00 
23.96552 	 1.13114e+00 	 1.13028e+00 	 2.77938e-01 	 2.82619e-01 	 1.67670e-02 	 1.70070e-02 	 0.00000e+00 	 0.00000e+00 
25.00000 	 1.14011e+00 	 1.13929e+00 	 3.00592e-01 	 3.05398e-01 	 1.74580e-02 	 1.77000e-02 	 0.00000e+00 	 0.00000e+00 
